 ethyl triphenylphosphonium ylide
 OpenBabel01121216453D

 40 42  0  0  0  0  0  0  0  0999 V2000
   -4.1119    2.9575    0.6115 C   0  0  0  0  0  0  0  0  0  0  0  0
   -1.8251    2.6441    1.3189 C   0  0  0  0  0  0  0  0  0  0  0  0
   -1.7120    1.4800    0.5415 C   0  0  0  0  0  0  0  0  0  0  0  0
   -2.8198    1.0941   -0.2255 C   0  0  0  0  0  0  0  0  0  0  0  0
   -4.0151    1.8166   -0.1805 C   0  0  0  0  0  0  0  0  0  0  0  0
   -3.0132    3.3769    1.3546 C   0  0  0  0  0  0  0  0  0  0  0  0
   -0.1812    0.5867    0.4701 P   0  0  0  0  0  0  0  0  0  0  0  0
   -0.2958   -1.0950   -0.0673 C   0  0  0  0  0  0  0  0  0  0  0  0
    1.1055    1.5352   -0.3020 C   0  0  0  0  0  0  0  0  0  0  0  0
    0.7946    2.6091   -1.1479 C   0  0  0  0  0  0  0  0  0  0  0  0
    1.8027    3.3794   -1.7323 C   0  0  0  0  0  0  0  0  0  0  0  0
    3.1404    3.0771   -1.4922 C   0  0  0  0  0  0  0  0  0  0  0  0
    3.4699    2.0060   -0.6667 C   0  0  0  0  0  0  0  0  0  0  0  0
    2.4602    1.2455   -0.0736 C   0  0  0  0  0  0  0  0  0  0  0  0
   -1.3767   -1.9033    0.3218 C   0  0  0  0  0  0  0  0  0  0  0  0
    0.6871   -1.6744   -0.8819 C   0  0  0  0  0  0  0  0  0  0  0  0
    0.5992   -3.0106   -1.2836 C   0  0  0  0  0  0  0  0  0  0  0  0
   -0.4836   -3.7900   -0.8899 C   0  0  0  0  0  0  0  0  0  0  0  0
   -1.4762   -3.2347   -0.0889 C   0  0  0  0  0  0  0  0  0  0  0  0
    0.3420    0.5152    2.1339 C   0  0  0  0  0  0  0  0  0  0  0  0
    0.0306   -0.6198    3.0396 C   0  0  0  0  0  0  0  0  0  0  0  0
   -5.0386    3.5241    0.6409 H   0  0  0  0  0  0  0  0  0  0  0  0
   -0.9720    2.9989    1.8924 H   0  0  0  0  0  0  0  0  0  0  0  0
   -2.7615    0.2252   -0.8767 H   0  0  0  0  0  0  0  0  0  0  0  0
   -4.8675    1.4915   -0.7712 H   0  0  0  0  0  0  0  0  0  0  0  0
   -3.0759    4.2780    1.9592 H   0  0  0  0  0  0  0  0  0  0  0  0
   -0.2428    2.8647   -1.3519 H   0  0  0  0  0  0  0  0  0  0  0  0
    1.5406    4.2175   -2.3728 H   0  0  0  0  0  0  0  0  0  0  0  0
    3.9242    3.6762   -1.9474 H   0  0  0  0  0  0  0  0  0  0  0  0
    4.5127    1.7638   -0.4795 H   0  0  0  0  0  0  0  0  0  0  0  0
    2.7350    0.4154    0.5739 H   0  0  0  0  0  0  0  0  0  0  0  0
   -2.1564   -1.4948    0.9619 H   0  0  0  0  0  0  0  0  0  0  0  0
    1.5412   -1.0929   -1.2158 H   0  0  0  0  0  0  0  0  0  0  0  0
    1.3804   -3.4403   -1.9060 H   0  0  0  0  0  0  0  0  0  0  0  0
   -0.5532   -4.8274   -1.2054 H   0  0  0  0  0  0  0  0  0  0  0  0
   -2.3258   -3.8367    0.2213 H   0  0  0  0  0  0  0  0  0  0  0  0
    0.8758    1.3537    2.5693 H   0  0  0  0  0  0  0  0  0  0  0  0
   -1.0496   -0.7327    3.1613 H   0  0  0  0  0  0  0  0  0  0  0  0
    0.4632   -0.4362    4.0280 H   0  0  0  0  0  0  0  0  0  0  0  0
    0.4583   -1.5523    2.6631 H   0  0  0  0  0  0  0  0  0  0  0  0
  1 22  1  0  0  0  0
  2  3  1  0  0  0  0
  2 23  1  0  0  0  0
  3  4  2  0  0  0  0
  3  7  1  0  0  0  0
  4  5  1  0  0  0  0
  4 24  1  0  0  0  0
  5  1  2  0  0  0  0
  5 25  1  0  0  0  0
  6  1  1  0  0  0  0
  6  2  2  0  0  0  0
  6 26  1  0  0  0  0
  7  8  1  0  0  0  0
  7  9  1  0  0  0  0
  7 20  1  0  0  0  0
  8 15  1  0  0  0  0
  8 16  2  0  0  0  0
  9 10  2  0  0  0  0
 10 11  1  0  0  0  0
 10 27  1  0  0  0  0
 11 12  2  0  0  0  0
 11 28  1  0  0  0  0
 12 13  1  0  0  0  0
 12 29  1  0  0  0  0
 13 14  2  0  0  0  0
 13 30  1  0  0  0  0
 14  9  1  0  0  0  0
 14 31  1  0  0  0  0
 15 32  1  0  0  0  0
 16 17  1  0  0  0  0
 16 33  1  0  0  0  0
 17 18  2  0  0  0  0
 17 34  1  0  0  0  0
 18 19  1  0  0  0  0
 18 35  1  0  0  0  0
 19 15  2  0  0  0  0
 19 36  1  0  0  0  0
 20 21  1  0  0  0  0
 20 37  1  0  0  0  0
 21 38  1  0  0  0  0
 21 39  1  0  0  0  0
 21 40  1  0  0  0  0
M  RAD  1  20   2
M  END
