
 OpenBabel01161210333D

120126  0  0  0  0  0  0  0  0999 V2000
   -2.7412    2.7451   -1.8833 C   0  0  0  0  0  0  0  0  0  0  0  0
   -3.0438    1.4200   -1.1826 C   0  0  0  0  0  0  0  0  0  0  0  0
   -1.5589    2.5667   -2.8408 C   0  0  0  0  0  0  0  0  0  0  0  0
   -0.3203    2.0890   -2.0677 C   0  0  0  0  0  0  0  0  0  0  0  0
   -0.5885    0.7451   -1.3463 C   0  0  0  0  0  0  0  0  0  0  0  0
   -1.8174    0.9165   -0.4068 C   0  0  0  0  0  0  0  0  0  0  0  0
    1.0519   -0.0771   -0.6543 P   0  0  0  0  0  0  0  0  0  0  0  0
    0.3821   -1.8408   -0.3023 C   0  0  0  0  0  0  0  0  0  0  0  0
   -0.5761   -2.3741   -1.4002 C   0  0  0  0  0  0  0  0  0  0  0  0
   -1.0154   -3.8140   -1.1294 C   0  0  0  0  0  0  0  0  0  0  0  0
   -1.6622   -3.9320    0.2572 C   0  0  0  0  0  0  0  0  0  0  0  0
   -0.6994   -3.4478    1.3471 C   0  0  0  0  0  0  0  0  0  0  0  0
   -0.2791   -1.9971    1.0925 C   0  0  0  0  0  0  0  0  0  0  0  0
    1.3840    1.1324    0.8355 C   0  0  0  0  0  0  0  0  0  0  0  0
    1.5039    2.6709    0.6108 C   0  0  0  0  0  0  0  0  0  0  0  0
    1.7693    0.6296    2.2664 C   0  0  0  0  0  0  0  0  0  0  0  0
    2.5381    3.3961    1.4793 C   0  0  0  0  0  0  0  0  0  0  0  0
    2.5404    2.9188    2.9251 C   0  0  0  0  0  0  0  0  0  0  0  0
    2.8884    1.4285    2.9329 C   0  0  0  0  0  0  0  0  0  0  0  0
   -2.4978    3.5218   -1.1243 H   0  0  0  0  0  0  0  0  0  0  0  0
   -3.6364    3.0810   -2.4491 H   0  0  0  0  0  0  0  0  0  0  0  0
   -3.3368    0.6616   -1.9419 H   0  0  0  0  0  0  0  0  0  0  0  0
   -3.8968    1.5544   -0.4824 H   0  0  0  0  0  0  0  0  0  0  0  0
   -1.3381    3.5358   -3.3381 H   0  0  0  0  0  0  0  0  0  0  0  0
   -1.8215    1.8256   -3.6275 H   0  0  0  0  0  0  0  0  0  0  0  0
   -0.0942    2.8926   -1.3565 H   0  0  0  0  0  0  0  0  0  0  0  0
    0.5241    1.9737   -2.7809 H   0  0  0  0  0  0  0  0  0  0  0  0
   -0.8880    0.0830   -2.1793 H   0  0  0  0  0  0  0  0  0  0  0  0
   -1.6114    1.6458    0.4027 H   0  0  0  0  0  0  0  0  0  0  0  0
   -2.1291   -0.0367    0.0296 H   0  0  0  0  0  0  0  0  0  0  0  0
    1.2843   -2.4745   -0.2503 H   0  0  0  0  0  0  0  0  0  0  0  0
   -0.1019   -2.3190   -2.3997 H   0  0  0  0  0  0  0  0  0  0  0  0
   -1.5110   -1.7827   -1.4134 H   0  0  0  0  0  0  0  0  0  0  0  0
   -0.1424   -4.4777   -1.2027 H   0  0  0  0  0  0  0  0  0  0  0  0
   -1.7408   -4.1361   -1.9070 H   0  0  0  0  0  0  0  0  0  0  0  0
   -1.9426   -4.9897    0.4483 H   0  0  0  0  0  0  0  0  0  0  0  0
   -2.5865   -3.3141    0.2876 H   0  0  0  0  0  0  0  0  0  0  0  0
    0.2037   -4.0847    1.3736 H   0  0  0  0  0  0  0  0  0  0  0  0
   -1.1880   -3.5259    2.3420 H   0  0  0  0  0  0  0  0  0  0  0  0
    0.4239   -1.7292    1.8922 H   0  0  0  0  0  0  0  0  0  0  0  0
   -1.1638   -1.3657    1.2207 H   0  0  0  0  0  0  0  0  0  0  0  0
    0.3105    1.0762    1.0462 H   0  0  0  0  0  0  0  0  0  0  0  0
    0.5244    3.1463    0.8557 H   0  0  0  0  0  0  0  0  0  0  0  0
    1.7745    2.8981   -0.4372 H   0  0  0  0  0  0  0  0  0  0  0  0
    2.0205   -0.4354    2.2884 H   0  0  0  0  0  0  0  0  0  0  0  0
    0.9005    0.7370    2.9640 H   0  0  0  0  0  0  0  0  0  0  0  0
    2.3700    4.4935    1.4182 H   0  0  0  0  0  0  0  0  0  0  0  0
    3.5394    3.2110    1.0842 H   0  0  0  0  0  0  0  0  0  0  0  0
    1.5571    3.1048    3.4118 H   0  0  0  0  0  0  0  0  0  0  0  0
    3.3204    3.4791    3.4841 H   0  0  0  0  0  0  0  0  0  0  0  0
    3.0036    1.0770    3.9813 H   0  0  0  0  0  0  0  0  0  0  0  0
    3.8546    1.2622    2.4109 H   0  0  0  0  0  0  0  0  0  0  0  0
    5.3973   -2.9202   -1.8222 P   0  0  0  0  0  0  0  0  0  0  0  0
    6.6373   -1.6831   -2.6654 C   0  0  0  0  0  0  0  0  0  0  0  0
    6.8655   -4.2441   -1.8652 C   0  0  0  0  0  0  0  0  0  0  0  0
    4.1019   -4.2639   -1.2442 C   0  0  0  0  0  0  0  0  0  0  0  0
    6.0862   -0.2921   -2.6772 C   0  0  0  0  0  0  0  0  0  0  0  0
    7.1052    0.7459   -3.1788 C   0  0  0  0  0  0  0  0  0  0  0  0
    7.5167    0.4177   -4.6120 C   0  0  0  0  0  0  0  0  0  0  0  0
    8.0802   -1.0001   -4.6652 C   0  0  0  0  0  0  0  0  0  0  0  0
    7.0565   -2.0162   -4.1286 C   0  0  0  0  0  0  0  0  0  0  0  0
    8.3507   -3.8549   -1.6096 C   0  0  0  0  0  0  0  0  0  0  0  0
    9.2074   -5.1117   -1.3730 C   0  0  0  0  0  0  0  0  0  0  0  0
    9.1015   -6.0797   -2.5580 C   0  0  0  0  0  0  0  0  0  0  0  0
    7.6441   -6.5041   -2.7617 C   0  0  0  0  0  0  0  0  0  0  0  0
    6.7549   -5.2839   -3.0363 C   0  0  0  0  0  0  0  0  0  0  0  0
    2.8306   -4.5175   -2.0633 C   0  0  0  0  0  0  0  0  0  0  0  0
    2.2857   -5.9327   -1.7555 C   0  0  0  0  0  0  0  0  0  0  0  0
    2.0478   -6.1324   -0.2495 C   0  0  0  0  0  0  0  0  0  0  0  0
    3.3143   -5.8366    0.5616 C   0  0  0  0  0  0  0  0  0  0  0  0
    3.8392   -4.4172    0.2634 C   0  0  0  0  0  0  0  0  0  0  0  0
    7.5220   -1.5813   -2.0100 H   0  0  0  0  0  0  0  0  0  0  0  0
    6.6478   -4.8210   -0.9399 H   0  0  0  0  0  0  0  0  0  0  0  0
    4.6514   -5.1817   -1.4662 H   0  0  0  0  0  0  0  0  0  0  0  0
    5.8683   -0.0858   -1.6263 H   0  0  0  0  0  0  0  0  0  0  0  0
    5.1873   -0.2783   -3.3278 H   0  0  0  0  0  0  0  0  0  0  0  0
    8.0027    0.7371   -2.5198 H   0  0  0  0  0  0  0  0  0  0  0  0
    6.6641    1.7638   -3.1427 H   0  0  0  0  0  0  0  0  0  0  0  0
    8.2823    1.1430   -4.9629 H   0  0  0  0  0  0  0  0  0  0  0  0
    6.6307    0.4898   -5.2797 H   0  0  0  0  0  0  0  0  0  0  0  0
    9.0039   -1.0524   -4.0456 H   0  0  0  0  0  0  0  0  0  0  0  0
    8.3537   -1.2540   -5.7120 H   0  0  0  0  0  0  0  0  0  0  0  0
    7.5679   -2.9689   -4.2178 H   0  0  0  0  0  0  0  0  0  0  0  0
    6.1573   -2.0372   -4.7826 H   0  0  0  0  0  0  0  0  0  0  0  0
    8.4239   -3.2170   -0.7023 H   0  0  0  0  0  0  0  0  0  0  0  0
    8.8007   -3.3186   -2.4655 H   0  0  0  0  0  0  0  0  0  0  0  0
    8.8622   -5.6296   -0.4504 H   0  0  0  0  0  0  0  0  0  0  0  0
   10.2682   -4.8179   -1.2226 H   0  0  0  0  0  0  0  0  0  0  0  0
    9.7198   -6.9807   -2.3555 H   0  0  0  0  0  0  0  0  0  0  0  0
    9.4842   -5.5926   -3.4815 H   0  0  0  0  0  0  0  0  0  0  0  0
    7.2817   -7.0274   -1.8488 H   0  0  0  0  0  0  0  0  0  0  0  0
    7.5738   -7.2157   -3.6130 H   0  0  0  0  0  0  0  0  0  0  0  0
    5.7240   -5.6580   -3.1782 H   0  0  0  0  0  0  0  0  0  0  0  0
    7.0375   -4.8878   -4.0189 H   0  0  0  0  0  0  0  0  0  0  0  0
    3.0634   -4.4787   -3.1494 H   0  0  0  0  0  0  0  0  0  0  0  0
    2.0619   -3.7755   -1.8131 H   0  0  0  0  0  0  0  0  0  0  0  0
    1.3453   -6.1097   -2.3196 H   0  0  0  0  0  0  0  0  0  0  0  0
    3.0265   -6.6899   -2.0973 H   0  0  0  0  0  0  0  0  0  0  0  0
    1.7082   -7.1725   -0.0563 H   0  0  0  0  0  0  0  0  0  0  0  0
    1.2585   -5.4540    0.0931 H   0  0  0  0  0  0  0  0  0  0  0  0
    4.0964   -6.5825    0.2971 H   0  0  0  0  0  0  0  0  0  0  0  0
    3.0988   -5.9403    1.6467 H   0  0  0  0  0  0  0  0  0  0  0  0
    4.7813   -4.2721    0.8341 H   0  0  0  0  0  0  0  0  0  0  0  0
    3.0729   -3.6982    0.5957 H   0  0  0  0  0  0  0  0  0  0  0  0
    3.4836   -0.9437   -1.3524 Ru  0  0  0  0  0  0  0  0  0  0  0  0
    3.6773    1.0064   -1.8807 C   0  0  0  0  0  0  0  0  0  0  0  0
    4.4878    2.0639   -1.2298 C   0  0  0  0  0  0  0  0  0  0  0  0
    4.4524    3.3571   -1.7825 C   0  0  0  0  0  0  0  0  0  0  0  0
    5.9943    4.1455   -0.0957 C   0  0  0  0  0  0  0  0  0  0  0  0
    6.0433    2.8630    0.4597 C   0  0  0  0  0  0  0  0  0  0  0  0
    5.2894    1.8238   -0.1013 C   0  0  0  0  0  0  0  0  0  0  0  0
    3.9607   -1.3661    0.9603 Cl  0  0  0  0  0  0  0  0  0  0  0  0
    2.4379   -1.7653   -3.3617 Cl  0  0  0  0  0  0  0  0  0  0  0  0
    3.1285    1.2891   -2.7743 H   0  0  0  0  0  0  0  0  0  0  0  0
    3.8423    3.5645   -2.6539 H   0  0  0  0  0  0  0  0  0  0  0  0
    6.6567    2.6763    1.3303 H   0  0  0  0  0  0  0  0  0  0  0  0
    5.3363    0.8466    0.3468 H   0  0  0  0  0  0  0  0  0  0  0  0
    5.1992    4.3912   -1.2156 C   0  0  0  0  0  0  0  0  0  0  0  0
    6.5700    4.9497    0.3432 H   0  0  0  0  0  0  0  0  0  0  0  0
    5.1598    5.3836   -1.6470 H   0  0  0  0  0  0  0  0  0  0  0  0
  1  2  1  0  0  0  0
  1  3  1  0  0  0  0
  1 20  1  0  0  0  0
  1 21  1  0  0  0  0
  2 22  1  0  0  0  0
  2 23  1  0  0  0  0
  3  4  1  0  0  0  0
  3 24  1  0  0  0  0
  3 25  1  0  0  0  0
  4  5  1  0  0  0  0
  4 26  1  0  0  0  0
  4 27  1  0  0  0  0
  5  6  1  0  0  0  0
  5  7  1  0  0  0  0
  5 28  1  0  0  0  0
  6  2  1  0  0  0  0
  6 29  1  0  0  0  0
  6 30  1  0  0  0  0
  7  8  1  0  0  0  0
  7 14  1  0  0  0  0
  7105  1  0  0  0  0
  8  9  1  0  0  0  0
  8 31  1  0  0  0  0
  9 10  1  0  0  0  0
  9 32  1  0  0  0  0
  9 33  1  0  0  0  0
 10 11  1  0  0  0  0
 10 34  1  0  0  0  0
 10 35  1  0  0  0  0
 11 12  1  0  0  0  0
 11 36  1  0  0  0  0
 11 37  1  0  0  0  0
 12 13  1  0  0  0  0
 12 38  1  0  0  0  0
 12 39  1  0  0  0  0
 13  8  1  0  0  0  0
 13 40  1  0  0  0  0
 13 41  1  0  0  0  0
 14 16  1  0  0  0  0
 14 42  1  0  0  0  0
 15 14  1  0  0  0  0
 15 17  1  0  0  0  0
 15 43  1  0  0  0  0
 15 44  1  0  0  0  0
 16 45  1  0  0  0  0
 16 46  1  0  0  0  0
 17 18  1  0  0  0  0
 17 47  1  0  0  0  0
 17 48  1  0  0  0  0
 18 19  1  0  0  0  0
 18 49  1  0  0  0  0
 18 50  1  0  0  0  0
 19 16  1  0  0  0  0
 19 51  1  0  0  0  0
 19 52  1  0  0  0  0
 53 54  1  0  0  0  0
 53 55  1  0  0  0  0
 53 56  1  0  0  0  0
 54 57  1  0  0  0  0
 54 72  1  0  0  0  0
 55 62  1  0  0  0  0
 55 73  1  0  0  0  0
 56 67  1  0  0  0  0
 56 74  1  0  0  0  0
 57 58  1  0  0  0  0
 57 75  1  0  0  0  0
 57 76  1  0  0  0  0
 58 59  1  0  0  0  0
 58 77  1  0  0  0  0
 58 78  1  0  0  0  0
 59 60  1  0  0  0  0
 59 79  1  0  0  0  0
 59 80  1  0  0  0  0
 60 61  1  0  0  0  0
 60 81  1  0  0  0  0
 60 82  1  0  0  0  0
 61 54  1  0  0  0  0
 61 83  1  0  0  0  0
 61 84  1  0  0  0  0
 62 63  1  0  0  0  0
 62 85  1  0  0  0  0
 62 86  1  0  0  0  0
 63 64  1  0  0  0  0
 63 87  1  0  0  0  0
 63 88  1  0  0  0  0
 64 65  1  0  0  0  0
 64 89  1  0  0  0  0
 64 90  1  0  0  0  0
 65 66  1  0  0  0  0
 65 91  1  0  0  0  0
 65 92  1  0  0  0  0
 66 55  1  0  0  0  0
 66 93  1  0  0  0  0
 66 94  1  0  0  0  0
 67 68  1  0  0  0  0
 67 95  1  0  0  0  0
 67 96  1  0  0  0  0
 68 69  1  0  0  0  0
 68 97  1  0  0  0  0
 68 98  1  0  0  0  0
 69 70  1  0  0  0  0
 69 99  1  0  0  0  0
 69100  1  0  0  0  0
 70 71  1  0  0  0  0
 70101  1  0  0  0  0
 70102  1  0  0  0  0
 71 56  1  0  0  0  0
 71103  1  0  0  0  0
 71104  1  0  0  0  0
105 53  1  0  0  0  0
105106  2  0  0  0  0
105112  1  0  0  0  0
105113  1  0  0  0  0
106107  1  0  0  0  0
106114  1  0  0  0  0
107108  2  0  0  0  0
108115  1  0  0  0  0
108118  1  0  0  0  0
109110  1  0  0  0  0
109119  1  0  0  0  0
110111  2  0  0  0  0
110116  1  0  0  0  0
111107  1  0  0  0  0
111117  1  0  0  0  0
118109  2  0  0  0  0
118120  1  0  0  0  0
M  END
