 lysergic acid diethylamide
 OpenBabel01121215313D

 49 52  0  0  0  0  0  0  0  0999 V2000
   -8.0388    0.5111    0.1442 C   0  0  0  0  0  0  0  0  0  0  0  0
   -6.8135    1.1753    0.0379 C   0  0  0  0  0  0  0  0  0  0  0  0
   -5.6660    0.3962   -0.1747 C   0  0  0  0  0  0  0  0  0  0  0  0
   -5.7299   -0.9821   -0.2739 C   0  0  0  0  0  0  0  0  0  0  0  0
   -6.9452   -1.6643   -0.1713 C   0  0  0  0  0  0  0  0  0  0  0  0
   -8.0973   -0.8860    0.0403 C   0  0  0  0  0  0  0  0  0  0  0  0
   -6.5314    2.6254    0.1127 C   0  0  0  0  0  0  0  0  0  0  0  0
   -4.3172    0.8057   -0.3105 C   0  0  0  0  0  0  0  0  0  0  0  0
   -4.4338   -1.4091   -0.4704 N   0  0  0  0  0  0  0  0  0  0  0  0
   -7.0051   -2.7444   -0.2467 H   0  0  0  0  0  0  0  0  0  0  0  0
   -9.0613   -1.3835    0.1295 H   0  0  0  0  0  0  0  0  0  0  0  0
   -8.9535    1.0691    0.3210 H   0  0  0  0  0  0  0  0  0  0  0  0
   -3.5686   -0.3335   -0.4927 C   0  0  0  0  0  0  0  0  0  0  0  0
   -3.9863    2.2638   -0.2217 C   0  0  0  0  0  0  0  0  0  0  0  0
   -2.5065   -0.4839   -0.6306 H   0  0  0  0  0  0  0  0  0  0  0  0
   -7.4399    3.5282   -0.2921 C   0  0  0  0  0  0  0  0  0  0  0  0
   -7.1598    5.0097   -0.3126 C   0  0  0  0  0  0  0  0  0  0  0  0
   -5.6377    5.2803   -0.2444 C   0  0  0  0  0  0  0  0  0  0  0  0
   -7.9644    5.7127    0.8037 C   0  0  0  0  0  0  0  0  0  0  0  0
   -7.5035    5.4170   -1.2710 H   0  0  0  0  0  0  0  0  0  0  0  0
   -4.8127    4.4539    0.6588 N   0  0  0  0  0  0  0  0  0  0  0  0
   -5.4484    6.3457   -0.0594 H   0  0  0  0  0  0  0  0  0  0  0  0
   -5.2373    5.1061   -1.2539 H   0  0  0  0  0  0  0  0  0  0  0  0
   -5.1110    3.0047    0.5915 C   0  0  0  0  0  0  0  0  0  0  0  0
   -5.0381    2.5972    1.6137 H   0  0  0  0  0  0  0  0  0  0  0  0
   -8.4045    3.2018   -0.6624 H   0  0  0  0  0  0  0  0  0  0  0  0
   -4.1591   -2.3755   -0.5765 H   0  0  0  0  0  0  0  0  0  0  0  0
   -4.8610    4.9368    2.0388 C   0  0  0  0  0  0  0  0  0  0  0  0
   -4.6644    6.0134    2.0892 H   0  0  0  0  0  0  0  0  0  0  0  0
   -4.0710    4.4570    2.6284 H   0  0  0  0  0  0  0  0  0  0  0  0
   -5.8156    4.7248    2.5288 H   0  0  0  0  0  0  0  0  0  0  0  0
   -9.3430    5.4821    0.8075 N   0  0  0  0  0  0  0  0  0  0  0  0
   -7.4366    6.4083    1.6712 O   0  0  0  0  0  0  0  0  0  0  0  0
  -10.1202    5.5459   -0.4324 C   0  0  0  0  0  0  0  0  0  0  0  0
  -10.1784    4.5391   -0.8558 H   0  0  0  0  0  0  0  0  0  0  0  0
   -9.5840    6.1808   -1.1463 H   0  0  0  0  0  0  0  0  0  0  0  0
  -11.5276    6.0991   -0.2571 C   0  0  0  0  0  0  0  0  0  0  0  0
  -12.1517    5.4174    0.3298 H   0  0  0  0  0  0  0  0  0  0  0  0
  -12.0073    6.2282   -1.2324 H   0  0  0  0  0  0  0  0  0  0  0  0
  -11.5120    7.0687    0.2509 H   0  0  0  0  0  0  0  0  0  0  0  0
   -9.9879    4.9311    2.0035 C   0  0  0  0  0  0  0  0  0  0  0  0
   -9.0990    4.6172    3.2001 C   0  0  0  0  0  0  0  0  0  0  0  0
  -10.4604    3.9919    1.6887 H   0  0  0  0  0  0  0  0  0  0  0  0
  -10.7811    5.6186    2.3126 H   0  0  0  0  0  0  0  0  0  0  0  0
   -8.2592    3.9724    2.9222 H   0  0  0  0  0  0  0  0  0  0  0  0
   -9.6785    4.0965    3.9693 H   0  0  0  0  0  0  0  0  0  0  0  0
   -8.7032    5.5319    3.6514 H   0  0  0  0  0  0  0  0  0  0  0  0
   -3.9132    2.6782   -1.2348 H   0  0  0  0  0  0  0  0  0  0  0  0
   -3.0171    2.3996    0.2727 H   0  0  0  0  0  0  0  0  0  0  0  0
  1  2  1  0  0  0  0
  1 12  1  0  0  0  0
  2  3  2  0  0  0  0
  2  7  1  0  0  0  0
  3  4  1  0  0  0  0
  3  8  1  0  0  0  0
  4  5  2  0  0  0  0
  4  9  1  0  0  0  0
  5  6  1  0  0  0  0
  5 10  1  0  0  0  0
  6  1  2  0  0  0  0
  6 11  1  0  0  0  0
  7 16  2  0  0  0  0
  7 24  1  0  0  0  0
  8 13  2  0  0  0  0
  8 14  1  0  0  0  0
  9 27  1  0  0  0  0
 13  9  1  0  0  0  0
 13 15  1  0  0  0  0
 14 24  1  0  0  0  0
 14 48  1  0  0  0  0
 14 49  1  0  0  0  0
 16 17  1  0  0  0  0
 16 26  1  0  0  0  0
 17 18  1  0  0  0  0
 17 19  1  0  0  0  0
 17 20  1  0  0  0  0
 18 21  1  0  0  0  0
 18 22  1  0  0  0  0
 18 23  1  0  0  0  0
 19 32  1  0  0  0  0
 19 33  2  0  0  0  0
 21 24  1  0  0  0  0
 21 28  1  0  0  0  0
 24 25  1  0  0  0  0
 28 29  1  0  0  0  0
 28 30  1  0  0  0  0
 28 31  1  0  0  0  0
 32 34  1  0  0  0  0
 32 41  1  0  0  0  0
 34 35  1  0  0  0  0
 34 36  1  0  0  0  0
 34 37  1  0  0  0  0
 37 38  1  0  0  0  0
 37 39  1  0  0  0  0
 37 40  1  0  0  0  0
 41 42  1  0  0  0  0
 41 43  1  0  0  0  0
 41 44  1  0  0  0  0
 42 45  1  0  0  0  0
 42 46  1  0  0  0  0
 42 47  1  0  0  0  0
M  END
