
 OpenBabel01161210363D

 37 44  0  0  0  0  0  0  0  0999 V2000
   -4.6017    4.4474   -0.6168 C   0  0  0  0  0  0  0  0  0  0  0  0
   -3.2887    4.8788   -0.5509 C   0  0  0  0  0  0  0  0  0  0  0  0
   -2.5319    3.7418   -0.4678 C   0  0  0  0  0  0  0  0  0  0  0  0
   -1.0995    3.5530   -0.3760 C   0  0  0  0  0  0  0  0  0  0  0  0
   -0.0673    4.4519   -0.3576 C   0  0  0  0  0  0  0  0  0  0  0  0
    1.0844    3.6925   -0.2608 C   0  0  0  0  0  0  0  0  0  0  0  0
    0.6873    2.3591   -0.2240 C   0  0  0  0  0  0  0  0  0  0  0  0
   -4.5715    3.0548   -0.5698 C   0  0  0  0  0  0  0  0  0  0  0  0
    1.4502   -0.1050   -0.0787 C   0  0  0  0  0  0  0  0  0  0  0  0
    0.1986   -0.9146   -0.1196 C   0  0  0  0  0  0  0  0  0  0  0  0
    0.2057   -2.3038   -0.0596 C   0  0  0  0  0  0  0  0  0  0  0  0
   -1.1146   -2.7203   -0.1253 C   0  0  0  0  0  0  0  0  0  0  0  0
   -1.8600   -1.5704   -0.2206 C   0  0  0  0  0  0  0  0  0  0  0  0
   -3.1752   -1.3937   -0.3128 C   0  0  0  0  0  0  0  0  0  0  0  0
   -4.2026   -2.3072   -0.3488 C   0  0  0  0  0  0  0  0  0  0  0  0
   -5.3640   -1.5587   -0.4566 C   0  0  0  0  0  0  0  0  0  0  0  0
   -3.2952    2.6473   -0.4766 N   0  0  0  0  0  0  0  0  0  0  0  0
   -0.6529    2.2993   -0.2982 N   0  0  0  0  0  0  0  0  0  0  0  0
   -1.0745   -0.4886   -0.2161 N   0  0  0  0  0  0  0  0  0  0  0  0
   -4.9819   -0.2186   -0.4777 C   0  0  0  0  0  0  0  0  0  0  0  0
   -3.6411   -0.1425   -0.3898 N   0  0  0  0  0  0  0  0  0  0  0  0
   -5.8661    0.7994   -0.5758 C   0  0  0  0  0  0  0  0  0  0  0  0
   -5.6807    2.2876   -0.6137 C   0  0  0  0  0  0  0  0  0  0  0  0
    1.6513    1.2341   -0.1230 C   0  0  0  0  0  0  0  0  0  0  0  0
   -5.4765    5.0790   -0.6898 H   0  0  0  0  0  0  0  0  0  0  0  0
   -2.9221    5.8952   -0.5607 H   0  0  0  0  0  0  0  0  0  0  0  0
   -0.1474    5.5282   -0.4117 H   0  0  0  0  0  0  0  0  0  0  0  0
    2.0962    4.0717   -0.2243 H   0  0  0  0  0  0  0  0  0  0  0  0
    2.3599   -0.6983   -0.0010 H   0  0  0  0  0  0  0  0  0  0  0  0
    1.0767   -2.9393    0.0226 H   0  0  0  0  0  0  0  0  0  0  0  0
   -1.4828   -3.7366   -0.1047 H   0  0  0  0  0  0  0  0  0  0  0  0
   -4.1202   -3.3846   -0.3067 H   0  0  0  0  0  0  0  0  0  0  0  0
   -6.3732   -1.9471   -0.5151 H   0  0  0  0  0  0  0  0  0  0  0  0
   -6.9119    0.5031   -0.6383 H   0  0  0  0  0  0  0  0  0  0  0  0
   -6.6197    2.8327   -0.6917 H   0  0  0  0  0  0  0  0  0  0  0  0
    2.6938    1.5460   -0.0765 H   0  0  0  0  0  0  0  0  0  0  0  0
   -2.1625    1.0920   -0.3455 Cu  0  0  0  0  0  0  0  0  0  0  0  0
  1  2  2  0  0  0  0
  1  8  1  0  0  0  0
  1 25  1  0  0  0  0
  2  3  1  0  0  0  0
  2 26  1  0  0  0  0
  3 17  2  0  0  0  0
  3  4  1  0  0  0  0
  4  5  2  0  0  0  0
  4 18  1  0  0  0  0
  5  6  1  0  0  0  0
  5 27  1  0  0  0  0
  6  7  2  0  0  0  0
  6 28  1  0  0  0  0
  7 24  1  0  0  0  0
  8 23  2  0  0  0  0
  9 10  1  0  0  0  0
  9 24  2  0  0  0  0
  9 29  1  0  0  0  0
 10 11  1  0  0  0  0
 11 12  2  0  0  0  0
 11 30  1  0  0  0  0
 12 13  1  0  0  0  0
 12 31  1  0  0  0  0
 13 19  1  0  0  0  0
 14 15  1  0  0  0  0
 14 13  2  0  0  0  0
 15 16  2  0  0  0  0
 15 32  1  0  0  0  0
 16 20  1  0  0  0  0
 16 33  1  0  0  0  0
 17  8  1  0  0  0  0
 17 37  1  0  0  0  0
 18  7  1  0  0  0  0
 18 37  1  0  0  0  0
 19 10  2  0  0  0  0
 19 37  1  0  0  0  0
 20 21  1  0  0  0  0
 20 22  2  0  0  0  0
 21 14  1  0  0  0  0
 21 37  1  0  0  0  0
 22 34  1  0  0  0  0
 23 22  1  0  0  0  0
 23 35  1  0  0  0  0
 24 36  1  0  0  0  0
M  END
