 chlorophyll a
 OpenBabel01121216123D

137145  0  0  0  0  0  0  0  0999 V2000
   -5.2449    6.1571   -0.6202 C   0  0  0  0  0  0  0  0  0  0  0  0
   -3.8555    6.7736   -0.9524 C   0  0  0  0  0  0  0  0  0  0  0  0
   -2.9505    5.6714   -0.5426 C   0  0  0  0  0  0  0  0  0  0  0  0
   -1.6374    5.8657   -0.3331 C   0  0  0  0  0  0  0  0  0  0  0  0
   -0.6396    4.8221   -0.0201 C   0  0  0  0  0  0  0  0  0  0  0  0
    0.7058    5.0585    0.2269 C   0  0  0  0  0  0  0  0  0  0  0  0
    1.3098    3.8093    0.3196 C   0  0  0  0  0  0  0  0  0  0  0  0
    0.2965    2.8770    0.1430 C   0  0  0  0  0  0  0  0  0  0  0  0
   -4.9147    4.6723   -0.4997 C   0  0  0  0  0  0  0  0  0  0  0  0
    0.4998    1.4165    0.0645 C   0  0  0  0  0  0  0  0  0  0  0  0
   -0.4646    0.4967   -0.1164 C   0  0  0  0  0  0  0  0  0  0  0  0
   -0.2250   -0.8670   -0.2067 C   0  0  0  0  0  0  0  0  0  0  0  0
   -1.4610   -1.4772   -0.3229 C   0  0  0  0  0  0  0  0  0  0  0  0
   -2.4079   -0.4575   -0.3002 C   0  0  0  0  0  0  0  0  0  0  0  0
   -3.8784   -0.6684   -0.3283 C   0  0  0  0  0  0  0  0  0  0  0  0
   -4.7770    0.3279   -0.3154 C   0  0  0  0  0  0  0  0  0  0  0  0
   -6.1734    0.1796   -0.2876 C   0  0  0  0  0  0  0  0  0  0  0  0
   -6.6684    1.4679   -0.2894 C   0  0  0  0  0  0  0  0  0  0  0  0
   -3.6450    4.4574   -0.4581 N   0  0  0  0  0  0  0  0  0  0  0  0
   -0.8813    3.4993   -0.0277 N   0  0  0  0  0  0  0  0  0  0  0  0
   -1.7890    0.7476   -0.2261 N   0  0  0  0  0  0  0  0  0  0  0  0
   -5.6294    2.2900   -0.3368 C   0  0  0  0  0  0  0  0  0  0  0  0
   -4.4638    1.6443   -0.3235 N   0  0  0  0  0  0  0  0  0  0  0  0
   -5.9359    3.5792   -0.3861 C   0  0  0  0  0  0  0  0  0  0  0  0
   -5.8311    6.6731    0.7211 C   0  0  0  0  0  0  0  0  0  0  0  0
   -3.6956    6.9708   -2.4750 C   0  0  0  0  0  0  0  0  0  0  0  0
   -1.2747    6.8817   -0.4429 H   0  0  0  0  0  0  0  0  0  0  0  0
    1.3529    6.4037    0.4113 C   0  0  0  0  0  0  0  0  0  0  0  0
    2.7354    3.4693    0.5701 C   0  0  0  0  0  0  0  0  0  0  0  0
    1.5193    1.0642    0.1472 H   0  0  0  0  0  0  0  0  0  0  0  0
    1.1278   -1.5272   -0.1866 C   0  0  0  0  0  0  0  0  0  0  0  0
   -1.7248   -2.9537   -0.4750 C   0  0  0  0  0  0  0  0  0  0  0  0
   -4.2437   -1.6901   -0.3287 H   0  0  0  0  0  0  0  0  0  0  0  0
   -6.9636   -1.0910   -0.2457 C   0  0  0  0  0  0  0  0  0  0  0  0
   -7.8643    2.2644   -0.2540 C   0  0  0  0  0  0  0  0  0  0  0  0
   -7.4713    3.7366   -0.2983 C   0  0  0  0  0  0  0  0  0  0  0  0
    3.7520    4.2848    0.2851 C   0  0  0  0  0  0  0  0  0  0  0  0
   -1.9952   -3.6182    0.8669 C   0  0  0  0  0  0  0  0  0  0  0  0
   -5.9430    6.3631   -1.4553 H   0  0  0  0  0  0  0  0  0  0  0  0
   -3.6588    7.7405   -0.4549 H   0  0  0  0  0  0  0  0  0  0  0  0
    0.6037    7.1868    0.6410 H   0  0  0  0  0  0  0  0  0  0  0  0
    1.9185    6.6987   -0.4934 H   0  0  0  0  0  0  0  0  0  0  0  0
    2.0207    6.3700    1.2989 H   0  0  0  0  0  0  0  0  0  0  0  0
    2.9738    2.4940    0.9806 H   0  0  0  0  0  0  0  0  0  0  0  0
    1.7253   -1.1467   -1.0430 H   0  0  0  0  0  0  0  0  0  0  0  0
    1.0669   -2.6278   -0.2718 H   0  0  0  0  0  0  0  0  0  0  0  0
    1.6542   -1.2829    0.7589 H   0  0  0  0  0  0  0  0  0  0  0  0
   -0.8562   -3.4508   -0.9517 H   0  0  0  0  0  0  0  0  0  0  0  0
   -2.5750   -3.1100   -1.1715 H   0  0  0  0  0  0  0  0  0  0  0  0
   -6.7364   -1.7043   -1.1423 H   0  0  0  0  0  0  0  0  0  0  0  0
   -8.0519   -0.8744   -0.2239 H   0  0  0  0  0  0  0  0  0  0  0  0
   -6.6946   -1.6636    0.6668 H   0  0  0  0  0  0  0  0  0  0  0  0
   -8.0951    4.4485   -1.4686 C   0  0  0  0  0  0  0  0  0  0  0  0
   -7.7666    4.2314    0.6504 H   0  0  0  0  0  0  0  0  0  0  0  0
    3.6015    5.2463   -0.1791 H   0  0  0  0  0  0  0  0  0  0  0  0
    4.7675    3.9600    0.4813 H   0  0  0  0  0  0  0  0  0  0  0  0
   -1.1111   -3.5057    1.5308 H   0  0  0  0  0  0  0  0  0  0  0  0
   -2.1813   -4.7015    0.7069 H   0  0  0  0  0  0  0  0  0  0  0  0
   -2.8839   -3.1679    1.3553 H   0  0  0  0  0  0  0  0  0  0  0  0
   -5.8752    8.2074    0.9500 C   0  0  0  0  0  0  0  0  0  0  0  0
   -6.5177    9.0395   -0.1307 C   0  0  0  0  0  0  0  0  0  0  0  0
   -6.7410   10.3625    0.0943 O   0  0  0  0  0  0  0  0  0  0  0  0
   -7.1735   11.2150   -0.9024 C   0  0  0  0  0  0  0  0  0  0  0  0
   -6.8411    8.5369   -1.1968 O   0  0  0  0  0  0  0  0  0  0  0  0
   -7.6084   12.5389   -0.3218 C   0  0  0  0  0  0  0  0  0  0  0  0
   -7.0376   13.7493   -0.5502 C   0  0  0  0  0  0  0  0  0  0  0  0
   -5.7872   13.9333   -1.3955 C   0  0  0  0  0  0  0  0  0  0  0  0
   -5.2412    6.2556    1.5669 H   0  0  0  0  0  0  0  0  0  0  0  0
   -6.8645    6.2880    0.8058 H   0  0  0  0  0  0  0  0  0  0  0  0
   -3.8867    6.0214   -3.0263 H   0  0  0  0  0  0  0  0  0  0  0  0
   -2.6703    7.3177   -2.7238 H   0  0  0  0  0  0  0  0  0  0  0  0
   -4.4182    7.7305   -2.8417 H   0  0  0  0  0  0  0  0  0  0  0  0
   -6.4362    8.3702    1.8935 H   0  0  0  0  0  0  0  0  0  0  0  0
   -4.8535    8.6059    1.1246 H   0  0  0  0  0  0  0  0  0  0  0  0
   -8.0743   10.7910   -1.3960 H   0  0  0  0  0  0  0  0  0  0  0  0
   -6.3921   11.2730   -1.6773 H   0  0  0  0  0  0  0  0  0  0  0  0
   -8.4840   12.5024    0.3229 H   0  0  0  0  0  0  0  0  0  0  0  0
   -5.3159   13.0133   -1.7715 H   0  0  0  0  0  0  0  0  0  0  0  0
   -5.0049   14.4476   -0.8014 H   0  0  0  0  0  0  0  0  0  0  0  0
   -6.0389   14.5532   -2.2817 H   0  0  0  0  0  0  0  0  0  0  0  0
   -7.7258   14.9706    0.0528 C   0  0  0  0  0  0  0  0  0  0  0  0
   -6.8949   16.2630    0.0163 C   0  0  0  0  0  0  0  0  0  0  0  0
   -7.7207   17.4844    0.4588 C   0  0  0  0  0  0  0  0  0  0  0  0
   -6.9152   18.8049    0.3744 C   0  0  0  0  0  0  0  0  0  0  0  0
   -7.8727   20.0143    0.5433 C   0  0  0  0  0  0  0  0  0  0  0  0
   -7.1800   21.3598    0.2649 C   0  0  0  0  0  0  0  0  0  0  0  0
   -8.1276   22.5543    0.4613 C   0  0  0  0  0  0  0  0  0  0  0  0
   -7.4657   23.9321    0.1740 C   0  0  0  0  0  0  0  0  0  0  0  0
   -8.5215   25.0465    0.4109 C   0  0  0  0  0  0  0  0  0  0  0  0
   -6.1970   24.1481    1.0264 C   0  0  0  0  0  0  0  0  0  0  0  0
   -7.9626   26.4755    0.2907 C   0  0  0  0  0  0  0  0  0  0  0  0
   -9.0693   27.5336    0.4103 C   0  0  0  0  0  0  0  0  0  0  0  0
   -8.5145   28.9656    0.6060 C   0  0  0  0  0  0  0  0  0  0  0  0
   -9.6762   29.9576    0.7419 C   0  0  0  0  0  0  0  0  0  0  0  0
   -7.5792   29.4116   -0.5272 C   0  0  0  0  0  0  0  0  0  0  0  0
   -7.9791   14.7756    1.1180 H   0  0  0  0  0  0  0  0  0  0  0  0
   -8.6762   15.1138   -0.5080 H   0  0  0  0  0  0  0  0  0  0  0  0
   -6.5422   16.4631   -1.0164 H   0  0  0  0  0  0  0  0  0  0  0  0
   -6.0186   16.1096    0.6795 H   0  0  0  0  0  0  0  0  0  0  0  0
   -8.5795   17.5553   -0.2449 H   0  0  0  0  0  0  0  0  0  0  0  0
   -8.3031   20.0071    1.5692 H   0  0  0  0  0  0  0  0  0  0  0  0
   -8.7091   19.9180   -0.1841 H   0  0  0  0  0  0  0  0  0  0  0  0
   -6.7887   21.3645   -0.7760 H   0  0  0  0  0  0  0  0  0  0  0  0
   -6.3455   21.4679    0.9752 H   0  0  0  0  0  0  0  0  0  0  0  0
   -9.0041   22.4314   -0.2131 H   0  0  0  0  0  0  0  0  0  0  0  0
   -8.9516   24.9423    1.4321 H   0  0  0  0  0  0  0  0  0  0  0  0
   -9.3426   24.9062   -0.3269 H   0  0  0  0  0  0  0  0  0  0  0  0
   -5.4216   23.3923    0.7946 H   0  0  0  0  0  0  0  0  0  0  0  0
   -6.4366   24.1190    2.1095 H   0  0  0  0  0  0  0  0  0  0  0  0
   -5.7100   25.1121    0.7784 H   0  0  0  0  0  0  0  0  0  0  0  0
   -7.4391   26.5948   -0.6817 H   0  0  0  0  0  0  0  0  0  0  0  0
   -7.2470   26.6406    1.1229 H   0  0  0  0  0  0  0  0  0  0  0  0
   -9.6884   27.2996    1.3047 H   0  0  0  0  0  0  0  0  0  0  0  0
  -10.3376   29.6653    1.5853 H   0  0  0  0  0  0  0  0  0  0  0  0
  -10.2781   29.9862   -0.1919 H   0  0  0  0  0  0  0  0  0  0  0  0
   -9.2878   30.9779    0.9486 H   0  0  0  0  0  0  0  0  0  0  0  0
   -6.6845   28.7577   -0.5820 H   0  0  0  0  0  0  0  0  0  0  0  0
   -7.2132   30.4425   -0.3305 H   0  0  0  0  0  0  0  0  0  0  0  0
   -8.1052   29.3954   -1.5046 H   0  0  0  0  0  0  0  0  0  0  0  0
   -8.1256   17.3429    1.4854 H   0  0  0  0  0  0  0  0  0  0  0  0
   -5.7830   18.8261    1.4267 C   0  0  0  0  0  0  0  0  0  0  0  0
   -8.4934   22.5369    1.5122 H   0  0  0  0  0  0  0  0  0  0  0  0
   -7.1530   23.9694   -0.8935 H   0  0  0  0  0  0  0  0  0  0  0  0
   -9.7224   27.4780   -0.4889 H   0  0  0  0  0  0  0  0  0  0  0  0
   -7.9347   28.9880    1.5560 H   0  0  0  0  0  0  0  0  0  0  0  0
   -6.4718   18.8681   -0.6442 H   0  0  0  0  0  0  0  0  0  0  0  0
   -6.2085   18.7868    2.4530 H   0  0  0  0  0  0  0  0  0  0  0  0
   -5.1512   19.7298    1.3376 H   0  0  0  0  0  0  0  0  0  0  0  0
   -5.0867   17.9763    1.2994 H   0  0  0  0  0  0  0  0  0  0  0  0
   -9.0017    1.8299   -0.1661 O   0  0  0  0  0  0  0  0  0  0  0  0
   -8.4000    5.6279   -1.3526 O   0  0  0  0  0  0  0  0  0  0  0  0
   -8.4826    3.7479   -2.5657 O   0  0  0  0  0  0  0  0  0  0  0  0
   -9.1811    4.3191   -3.6085 C   0  0  0  0  0  0  0  0  0  0  0  0
   -9.4306    3.5362   -4.3526 H   0  0  0  0  0  0  0  0  0  0  0  0
   -8.5651    5.1041   -4.0960 H   0  0  0  0  0  0  0  0  0  0  0  0
  -10.1290    4.7662   -3.2354 H   0  0  0  0  0  0  0  0  0  0  0  0
   -2.6940    2.6210   -0.2812 Mg  0  0  0  0  0  0  0  0  0  0  0  0
  1  2  1  0  0  0  0
  1  9  1  0  0  0  0
  1 25  1  0  0  0  0
  1 39  1  0  0  0  0
  2  3  1  0  0  0  0
  2 26  1  0  0  0  0
  2 40  1  0  0  0  0
  3  4  2  0  0  0  0
  3 19  1  0  0  0  0
  4  5  1  0  0  0  0
  4 27  1  0  0  0  0
  5  6  2  0  0  0  0
  5 20  1  0  0  0  0
  6  7  1  0  0  0  0
  6 28  1  0  0  0  0
  7  8  2  0  0  0  0
  7 29  1  0  0  0  0
  8 10  1  0  0  0  0
 10 11  2  0  0  0  0
 10 30  1  0  0  0  0
 11 12  1  0  0  0  0
 12 13  2  0  0  0  0
 12 31  1  0  0  0  0
 13 14  1  0  0  0  0
 13 32  1  0  0  0  0
 14 15  1  0  0  0  0
 14 21  2  0  0  0  0
 15 16  2  0  0  0  0
 15 33  1  0  0  0  0
 16 17  1  0  0  0  0
 17 18  2  0  0  0  0
 17 34  1  0  0  0  0
 18 22  1  0  0  0  0
 18 35  1  0  0  0  0
 19  9  2  0  0  0  0
 19137  1  0  0  0  0
 20  8  1  0  0  0  0
 20137  1  0  0  0  0
 21 11  1  0  0  0  0
 21137  1  0  0  0  0
 22 23  1  0  0  0  0
 22 24  2  0  0  0  0
 23 16  1  0  0  0  0
 23137  1  0  0  0  0
 24  9  1  0  0  0  0
 24 36  1  0  0  0  0
 25 60  1  0  0  0  0
 25 68  1  0  0  0  0
 25 69  1  0  0  0  0
 26 70  1  0  0  0  0
 26 71  1  0  0  0  0
 26 72  1  0  0  0  0
 28 41  1  0  0  0  0
 28 42  1  0  0  0  0
 28 43  1  0  0  0  0
 29 37  2  0  0  0  0
 29 44  1  0  0  0  0
 31 45  1  0  0  0  0
 31 46  1  0  0  0  0
 31 47  1  0  0  0  0
 32 38  1  0  0  0  0
 32 48  1  0  0  0  0
 32 49  1  0  0  0  0
 34 50  1  0  0  0  0
 34 51  1  0  0  0  0
 34 52  1  0  0  0  0
 35130  2  0  0  0  0
 36 35  1  0  0  0  0
 36 53  1  0  0  0  0
 36 54  1  0  0  0  0
 37 55  1  0  0  0  0
 37 56  1  0  0  0  0
 38 57  1  0  0  0  0
 38 58  1  0  0  0  0
 38 59  1  0  0  0  0
 53131  2  0  0  0  0
 53132  1  0  0  0  0
 60 61  1  0  0  0  0
 60 73  1  0  0  0  0
 60 74  1  0  0  0  0
 61 62  1  0  0  0  0
 61 64  2  0  0  0  0
 62 63  1  0  0  0  0
 63 65  1  0  0  0  0
 63 75  1  0  0  0  0
 63 76  1  0  0  0  0
 65 66  2  0  0  0  0
 65 77  1  0  0  0  0
 66 67  1  0  0  0  0
 66 81  1  0  0  0  0
 67 78  1  0  0  0  0
 67 79  1  0  0  0  0
 67 80  1  0  0  0  0
 81 82  1  0  0  0  0
 81 96  1  0  0  0  0
 81 97  1  0  0  0  0
 82 83  1  0  0  0  0
 82 98  1  0  0  0  0
 82 99  1  0  0  0  0
 83 84  1  0  0  0  0
 83100  1  0  0  0  0
 83120  1  0  0  0  0
 84 85  1  0  0  0  0
 84121  1  0  0  0  0
 84126  1  0  0  0  0
 85 86  1  0  0  0  0
 85101  1  0  0  0  0
 85102  1  0  0  0  0
 86 87  1  0  0  0  0
 86103  1  0  0  0  0
 86104  1  0  0  0  0
 87 88  1  0  0  0  0
 87105  1  0  0  0  0
 87122  1  0  0  0  0
 88 89  1  0  0  0  0
 88 90  1  0  0  0  0
 88123  1  0  0  0  0
 89 91  1  0  0  0  0
 89106  1  0  0  0  0
 89107  1  0  0  0  0
 90108  1  0  0  0  0
 90109  1  0  0  0  0
 90110  1  0  0  0  0
 91 92  1  0  0  0  0
 91111  1  0  0  0  0
 91112  1  0  0  0  0
 92 93  1  0  0  0  0
 92113  1  0  0  0  0
 92124  1  0  0  0  0
 93 94  1  0  0  0  0
 93 95  1  0  0  0  0
 93125  1  0  0  0  0
 94114  1  0  0  0  0
 94115  1  0  0  0  0
 94116  1  0  0  0  0
 95117  1  0  0  0  0
 95118  1  0  0  0  0
 95119  1  0  0  0  0
121127  1  0  0  0  0
121128  1  0  0  0  0
121129  1  0  0  0  0
132133  1  0  0  0  0
133134  1  0  0  0  0
133135  1  0  0  0  0
133136  1  0  0  0  0
M  END
