
 OpenBabel01161209473D

 29 32  0  0  0  0  0  0  0  0999 V2000
   -1.2113    0.4607    0.1020 C   0  0  0  0  0  0  0  0  0  0  0  0
   -1.3610   -0.9199    0.1096 C   0  0  0  0  0  0  0  0  0  0  0  0
   -0.2176   -1.7599    0.1226 C   0  0  0  0  0  0  0  0  0  0  0  0
    1.1120   -1.2118    0.1278 C   0  0  0  0  0  0  0  0  0  0  0  0
    1.2330    0.1832    0.1208 C   0  0  0  0  0  0  0  0  0  0  0  0
    0.0710    1.0103    0.1082 C   0  0  0  0  0  0  0  0  0  0  0  0
    2.5540    0.8242    0.1255 C   0  0  0  0  0  0  0  0  0  0  0  0
    3.6812    0.1875    0.1381 N   0  0  0  0  0  0  0  0  0  0  0  0
    2.2399   -2.0271    0.1416 O   0  0  0  0  0  0  0  0  0  0  0  0
    4.0496   -1.6391    0.1206 Ni  0  0  0  0  0  0  0  0  0  0  0  0
    4.3042   -3.4895    0.1491 N   0  0  0  0  0  0  0  0  0  0  0  0
    5.8725   -1.3663    0.1454 O   0  0  0  0  0  0  0  0  0  0  0  0
    5.4019   -4.1853    0.1421 C   0  0  0  0  0  0  0  0  0  0  0  0
    6.9540   -2.2302    0.1348 C   0  0  0  0  0  0  0  0  0  0  0  0
    6.7627   -3.6142    0.1330 C   0  0  0  0  0  0  0  0  0  0  0  0
    8.3037   -1.7389    0.1310 C   0  0  0  0  0  0  0  0  0  0  0  0
    9.4080   -2.6250    0.1220 C   0  0  0  0  0  0  0  0  0  0  0  0
    9.1965   -3.9976    0.1168 C   0  0  0  0  0  0  0  0  0  0  0  0
    7.8885   -4.4921    0.1229 C   0  0  0  0  0  0  0  0  0  0  0  0
   -2.0913    1.1089    0.0914 H   0  0  0  0  0  0  0  0  0  0  0  0
   -2.3722   -1.3294    0.1047 H   0  0  0  0  0  0  0  0  0  0  0  0
   -0.3906   -2.8272    0.1279 H   0  0  0  0  0  0  0  0  0  0  0  0
    0.1539    2.0920    0.1022 H   0  0  0  0  0  0  0  0  0  0  0  0
    2.5745    1.9094    0.1224 H   0  0  0  0  0  0  0  0  0  0  0  0
    5.3274   -5.2681    0.1465 H   0  0  0  0  0  0  0  0  0  0  0  0
    8.5199   -0.6789    0.1340 H   0  0  0  0  0  0  0  0  0  0  0  0
   10.4354   -2.2567    0.1183 H   0  0  0  0  0  0  0  0  0  0  0  0
   10.0492   -4.6810    0.1086 H   0  0  0  0  0  0  0  0  0  0  0  0
    7.7595   -5.5685    0.1194 H   0  0  0  0  0  0  0  0  0  0  0  0
  1  2  1  0  0  0  0
  1 20  1  0  0  0  0
  2  3  2  0  0  0  0
  2 21  1  0  0  0  0
  3  4  1  0  0  0  0
  3 22  1  0  0  0  0
  4  5  2  0  0  0  0
  4  9  1  0  0  0  0
  5  6  1  0  0  0  0
  5  7  1  0  0  0  0
  6  1  2  0  0  0  0
  6 23  1  0  0  0  0
  7  8  2  0  0  0  0
  7 24  1  0  0  0  0
  8 10  1  0  0  0  0
  9 10  1  0  0  0  0
 10 11  1  0  0  0  0
 10 12  1  0  0  0  0
 11 13  2  0  0  0  0
 12 14  1  0  0  0  0
 13 15  1  0  0  0  0
 13 25  1  0  0  0  0
 14 15  2  0  0  0  0
 14 16  1  0  0  0  0
 16 17  2  0  0  0  0
 16 26  1  0  0  0  0
 17 18  1  0  0  0  0
 17 27  1  0  0  0  0
 18 19  2  0  0  0  0
 18 28  1  0  0  0  0
 19 15  1  0  0  0  0
 19 29  1  0  0  0  0
M  END
